Results/New_campus/from_terminal_0/network_debug.txt
Pandapower Network Debug Info
==================================================

BUS:
          name  vn_kv type  zone  in_service   geo
0        Bus 8    0.4    b  None        True  None
1        Bus 9    0.4    b  None        True  None
2       Bus 10    0.4    b  None        True  None
3       Bus 11    0.4    b  None        True  None
4       Bus 21   15.0    b  None        True  None
5       Bus 22   15.0    b  None        True  None
6       Bus 23   15.0    b  None        True  None
7     Sub MV 2   15.0    b  None        True  None
8     Sub LV 2    0.4    b  None        True  None
9   Slack HV 0   70.0    b  None        True  None
10  Slack MV 0   15.0    b  None        True  None
--------------------------------------------------

LOAD:
              name  bus      p_mw        q_mvar  const_z_percent  const_i_percent  sn_mva  scaling  in_service type
0        Load 8 T1    0  0.000500 -4.748709e-06              0.0              0.0     NaN      1.0        True  wye
1        Load 8 T2    0  0.000500 -4.748709e-06              0.0              0.0     NaN      1.0        True  wye
2        Load 8 T3    0  0.000500 -6.498934e-06              0.0              0.0     NaN      1.0        True  wye
3        Load 8 T4    0  0.000500 -6.498916e-06              0.0              0.0     NaN      1.0        True  wye
4        Load 8 T5    0  0.000500 -4.748709e-06              0.0              0.0     NaN      1.0        True  wye
5        Load 8 T6    0  0.000750 -8.407112e-06              0.0              0.0     NaN      1.0        True  wye
6        Load 8 T7    0  0.000750 -8.407112e-06              0.0              0.0     NaN      1.0        True  wye
7        Load 8 T8    0 -0.000207 -5.447325e-06              0.0              0.0     NaN      1.0        True  wye
8        Load 8 T9    0 -0.003759 -2.166760e-04              0.0              0.0     NaN      1.0        True  wye
9       Load 8 T10    0 -0.007194 -6.753982e-04              0.0              0.0     NaN      1.0        True  wye
10      Load 8 T11    0 -0.009460 -1.161861e-03              0.0              0.0     NaN      1.0        True  wye
11      Load 8 T12    0 -0.010164 -1.368552e-03              0.0              0.0     NaN      1.0        True  wye
12      Load 8 T13    0 -0.010227 -1.323379e-03              0.0              0.0     NaN      1.0        True  wye
13      Load 8 T14    0 -0.008477 -8.882924e-04              0.0              0.0     NaN      1.0        True  wye
14      Load 8 T15    0 -0.005355 -4.091704e-04              0.0              0.0     NaN      1.0        True  wye
15      Load 8 T16    0 -0.002132 -6.768246e-05              0.0              0.0     NaN      1.0        True  wye
16      Load 8 T17    0  0.001000 -8.034745e-06              0.0              0.0     NaN      1.0        True  wye
17      Load 8 T18    0  0.001250 -1.323552e-05              0.0              0.0     NaN      1.0        True  wye
18      Load 8 T19    0  0.001250 -9.518757e-06              0.0              0.0     NaN      1.0        True  wye
19      Load 8 T20    0  0.001000 -9.834380e-06              0.0              0.0     NaN      1.0        True  wye
20      Load 8 T21    0  0.001000 -1.357595e-05              0.0              0.0     NaN      1.0        True  wye
21      Load 8 T22    0  0.000750 -7.123063e-06              0.0              0.0     NaN      1.0        True  wye
22      Load 8 T23    0  0.000500 -4.748709e-06              0.0              0.0     NaN      1.0        True  wye
23      Load 8 T24    0  0.000500 -4.748709e-06              0.0              0.0     NaN      1.0        True  wye
24      Load 8 T25    0  0.000500 -5.759536e-06              0.0              0.0     NaN      1.0        True  wye
25      Load 8 T26    0  0.000500 -4.748709e-06              0.0              0.0     NaN      1.0        True  wye
26      Load 8 T27    0  0.000500 -4.748709e-06              0.0              0.0     NaN      1.0        True  wye
27      Load 8 T28    0  0.000500 -4.748709e-06              0.0              0.0     NaN      1.0        True  wye
28      Load 8 T29    0  0.000750 -7.123063e-06              0.0              0.0     NaN      1.0        True  wye
29      Load 8 T30    0  0.001000 -1.175151e-05              0.0              0.0     NaN      1.0        True  wye
30      Load 8 T31    0  0.000665 -5.597398e-06              0.0              0.0     NaN      1.0        True  wye
31      Load 8 T32    0 -0.002204 -7.857622e-05              0.0              0.0     NaN      1.0        True  wye
32      Load 8 T33    0 -0.006412 -5.202157e-04              0.0              0.0     NaN      1.0        True  wye
33      Load 8 T34    0 -0.009674 -1.173557e-03              0.0              0.0     NaN      1.0        True  wye
34      Load 8 T35    0 -0.011753 -1.708154e-03              0.0              0.0     NaN      1.0        True  wye
35      Load 8 T36    0 -0.013226  3.750000e-04              0.0              0.0     NaN      1.0        True  wye
36      Load 8 T37    0 -0.013495 -7.949454e-03              0.0              0.0     NaN      1.0        True  wye
37      Load 8 T38    0 -0.012055 -9.720056e-03              0.0              0.0     NaN      1.0        True  wye
38      Load 8 T39    0 -0.008689 -1.279367e-02              0.0              0.0     NaN      1.0        True  wye
39      Load 8 T40    0 -0.005512 -3.969209e-04              0.0              0.0     NaN      1.0        True  wye
40      Load 8 T41    0 -0.001162 -2.477784e-05              0.0              0.0     NaN      1.0        True  wye
41      Load 8 T42    0  0.000750 -7.123063e-06              0.0              0.0     NaN      1.0        True  wye
42      Load 8 T43    0  0.001000 -1.175151e-05              0.0              0.0     NaN      1.0        True  wye
43      Load 8 T44    0  0.001000 -1.175151e-05              0.0              0.0     NaN      1.0        True  wye
44      Load 8 T45    0  0.001250 -1.695229e-05              0.0              0.0     NaN      1.0        True  wye
45      Load 8 T46    0  0.000750 -7.123063e-06              0.0              0.0     NaN      1.0        True  wye
46      Load 8 T47    0  0.000500 -4.748709e-06              0.0              0.0     NaN      1.0        True  wye
47      Load 8 T48    0  0.000500 -4.748709e-06              0.0              0.0     NaN      1.0        True  wye
48      Load 8 T49    0  0.000250 -3.299489e-06              0.0              0.0     NaN      1.0        True  wye
49      Load 8 T50    0  0.000250 -2.325789e-06              0.0              0.0     NaN      1.0        True  wye
50      Load 8 T51    0  0.000250 -2.325789e-06              0.0              0.0     NaN      1.0        True  wye
51      Load 8 T52    0  0.000250 -2.325789e-06              0.0              0.0     NaN      1.0        True  wye
52      Load 8 T53    0  0.000040 -1.255153e-07              0.0              0.0     NaN      1.0        True  wye
53      Load 8 T54    0 -0.001154 -2.283348e-05              0.0              0.0     NaN      1.0        True  wye
54      Load 8 T55    0 -0.004807 -3.071330e-04              0.0              0.0     NaN      1.0        True  wye
55      Load 8 T56    0 -0.008379 -1.205025e-02              0.0              0.0     NaN      1.0        True  wye
56      Load 8 T57    0 -0.012596 -1.945835e-03              0.0              0.0     NaN      1.0        True  wye
57      Load 8 T58    0 -0.015163  1.064996e-04              0.0              0.0     NaN      1.0        True  wye
58      Load 8 T59    0 -0.015532  8.217103e-05              0.0              0.0     NaN      1.0        True  wye
59      Load 8 T60    0 -0.013838  3.229681e-04              0.0              0.0     NaN      1.0        True  wye
60      Load 8 T61    0 -0.015532  1.745011e-04              0.0              0.0     NaN      1.0        True  wye
61      Load 8 T62    0 -0.015425  1.416815e-04              0.0              0.0     NaN      1.0        True  wye
62      Load 8 T63    0 -0.010205 -1.317785e-03              0.0              0.0     NaN      1.0        True  wye
63      Load 8 T64    0 -0.008900 -9.946651e-04              0.0              0.0     NaN      1.0        True  wye
64      Load 8 T65    0 -0.005313 -3.698231e-04              0.0              0.0     NaN      1.0        True  wye
65      Load 8 T66    0 -0.002114 -6.436210e-05              0.0              0.0     NaN      1.0        True  wye
66      Load 8 T67    0  0.000500 -4.748709e-06              0.0              0.0     NaN      1.0        True  wye
67      Load 8 T68    0  0.000500 -4.748709e-06              0.0              0.0     NaN      1.0        True  wye
68      Load 8 T69    0  0.001000 -1.175151e-05              0.0              0.0     NaN      1.0        True  wye
69      Load 8 T70    0  0.000500 -4.748709e-06              0.0              0.0     NaN      1.0        True  wye
70      Load 8 T71    0  0.000250 -2.327131e-06              0.0              0.0     NaN      1.0        True  wye
71      Load 8 T72    0  0.000250 -2.338511e-06              0.0              0.0     NaN      1.0        True  wye
72      Load 8 T73    0  0.000250 -3.113304e-06              0.0              0.0     NaN      1.0        True  wye
73      Load 8 T74    0  0.000250 -3.101758e-06              0.0              0.0     NaN      1.0        True  wye
74      Load 8 T75    0  0.000250 -3.088870e-06              0.0              0.0     NaN      1.0        True  wye
75      Load 8 T76    0  0.000250 -4.789165e-06              0.0              0.0     NaN      1.0        True  wye
76      Load 8 T77    0 -0.000807 -1.070354e-05              0.0              0.0     NaN      1.0        True  wye
77      Load 8 T78    0 -0.004008 -2.015418e-04              0.0              0.0     NaN      1.0        True  wye
78      Load 8 T79    0 -0.008585 -9.073524e-04              0.0              0.0     NaN      1.0        True  wye
79      Load 8 T80    0 -0.012578 -8.960476e-04              0.0              0.0     NaN      1.0        True  wye
80      Load 8 T81    0 -0.015032 -3.523628e-04              0.0              0.0     NaN      1.0        True  wye
81      Load 8 T82    0 -0.015282 -1.456342e-04              0.0              0.0     NaN      1.0        True  wye
82      Load 8 T83    0 -0.015282 -1.948888e-04              0.0              0.0     NaN      1.0        True  wye
83      Load 8 T84    0 -0.013654 -7.116775e-05              0.0              0.0     NaN      1.0        True  wye
84      Load 8 T85    0 -0.013377 -6.768841e-05              0.0              0.0     NaN      1.0        True  wye
85      Load 8 T86    0 -0.015532 -2.939777e-04              0.0              0.0     NaN      1.0        True  wye
86      Load 8 T87    0 -0.014399 -5.978468e-04              0.0              0.0     NaN      1.0        True  wye
87      Load 8 T88    0 -0.010898 -1.364687e-03              0.0              0.0     NaN      1.0        True  wye
88      Load 8 T89    0 -0.007340 -7.139500e-04              0.0              0.0     NaN      1.0        True  wye
89      Load 8 T90    0 -0.002805 -1.232850e-04              0.0              0.0     NaN      1.0        True  wye
90      Load 8 T91    0 -0.000039 -6.696273e-06              0.0              0.0     NaN      1.0        True  wye
91      Load 8 T92    0  0.000500 -3.554761e-06              0.0              0.0     NaN      1.0        True  wye
92      Load 8 T93    0  0.000500 -5.158595e-06              0.0              0.0     NaN      1.0        True  wye
93      Load 8 T94    0  0.000500 -6.931627e-06              0.0              0.0     NaN      1.0        True  wye
94      Load 8 T95    0  0.000250 -3.152373e-06              0.0              0.0     NaN      1.0        True  wye
95      Load 8 T96    0  0.000250 -4.805328e-06              0.0              0.0     NaN      1.0        True  wye
96      Load 8 T97    0  0.000250 -3.817615e-06              0.0              0.0     NaN      1.0        True  wye
97      Load 8 T98    0  0.000250 -3.817615e-06              0.0              0.0     NaN      1.0        True  wye
98      Load 8 T99    0  0.000250 -5.547940e-06              0.0              0.0     NaN      1.0        True  wye
99     Load 8 T100    0  0.000250 -5.549300e-06              0.0              0.0     NaN      1.0        True  wye
100    Load 8 T101    0  0.000005 -1.417093e-06              0.0              0.0     NaN      1.0        True  wye
101    Load 8 T102    0 -0.003177 -1.172858e-04              0.0              0.0     NaN      1.0        True  wye
102    Load 8 T103    0 -0.007479 -6.668103e-04              0.0              0.0     NaN      1.0        True  wye
103    Load 8 T104    0 -0.011770 -1.075530e-03              0.0              0.0     NaN      1.0        True  wye
104    Load 8 T105    0 -0.015032 -4.101769e-04              0.0              0.0     NaN      1.0        True  wye
105    Load 8 T106    0 -0.015282 -1.358650e-04              0.0              0.0     NaN      1.0        True  wye
106    Load 8 T107    0 -0.011516 -5.207093e-05              0.0              0.0     NaN      1.0        True  wye
107    Load 8 T108    0 -0.008853 -3.158423e-05              0.0              0.0     NaN      1.0        True  wye
108    Load 8 T109    0 -0.012586 -6.030749e-05              0.0              0.0     NaN      1.0        True  wye
109    Load 8 T110    0 -0.015032 -1.318980e-04              0.0              0.0     NaN      1.0        True  wye
110    Load 8 T111    0 -0.014532 -4.218969e-04              0.0              0.0     NaN      1.0        True  wye
111    Load 8 T112    0 -0.011605 -1.050804e-03              0.0              0.0     NaN      1.0        True  wye
112    Load 8 T113    0 -0.006891 -6.872141e-04              0.0              0.0     NaN      1.0        True  wye
113    Load 8 T114    0 -0.002575 -1.274697e-04              0.0              0.0     NaN      1.0        True  wye
114    Load 8 T115    0  0.000633 -3.597631e-06              0.0              0.0     NaN      1.0        True  wye
115    Load 8 T116    0  0.000750 -5.626140e-06              0.0              0.0     NaN      1.0        True  wye
116    Load 8 T117    0  0.000750 -9.867208e-06              0.0              0.0     NaN      1.0        True  wye
117    Load 8 T118    0  0.000500 -6.913599e-06              0.0              0.0     NaN      1.0        True  wye
118    Load 8 T119    0  0.000250 -3.816273e-06              0.0              0.0     NaN      1.0        True  wye
119    Load 8 T120    0  0.000250 -3.816273e-06              0.0              0.0     NaN      1.0        True  wye
120    Load 8 T121    0  0.000250 -2.325789e-06              0.0              0.0     NaN      1.0        True  wye
121    Load 8 T122    0  0.000250 -2.325789e-06              0.0              0.0     NaN      1.0        True  wye
122    Load 8 T123    0  0.000250 -2.325789e-06              0.0              0.0     NaN      1.0        True  wye
123    Load 8 T124    0  0.000250 -2.325789e-06              0.0              0.0     NaN      1.0        True  wye
124    Load 8 T125    0  0.000250 -2.325789e-06              0.0              0.0     NaN      1.0        True  wye
125    Load 8 T126    0  0.000164 -7.988639e-07              0.0              0.0     NaN      1.0        True  wye
126    Load 8 T127    0 -0.000561 -7.574864e-06              0.0              0.0     NaN      1.0        True  wye
127    Load 8 T128    0 -0.000405 -1.521253e-02              0.0              0.0     NaN      1.0        True  wye
128    Load 8 T129    0 -0.002977 -1.185935e-04              0.0              0.0     NaN      1.0        True  wye
129    Load 8 T130    0 -0.004285 -2.373663e-04              0.0              0.0     NaN      1.0        True  wye
130    Load 8 T131    0 -0.006890 -6.042873e-04              0.0              0.0     NaN      1.0        True  wye
131    Load 8 T132    0 -0.005817 -4.447819e-04              0.0              0.0     NaN      1.0        True  wye
132    Load 8 T133    0 -0.007045 -6.321998e-04              0.0              0.0     NaN      1.0        True  wye
133    Load 8 T134    0 -0.007704 -7.541757e-04              0.0              0.0     NaN      1.0        True  wye
134    Load 8 T135    0 -0.007886 -8.001888e-04              0.0              0.0     NaN      1.0        True  wye
135    Load 8 T136    0 -0.003617 -1.850998e-04              0.0              0.0     NaN      1.0        True  wye
136    Load 8 T137    0 -0.001040 -2.062382e-05              0.0              0.0     NaN      1.0        True  wye
137    Load 8 T138    0  0.000017 -8.155517e-07              0.0              0.0     NaN      1.0        True  wye
138    Load 8 T139    0  0.000750 -7.123063e-06              0.0              0.0     NaN      1.0        True  wye
139    Load 8 T140    0  0.000750 -7.123063e-06              0.0              0.0     NaN      1.0        True  wye
140    Load 8 T141    0  0.001250 -1.695229e-05              0.0              0.0     NaN      1.0        True  wye
141    Load 8 T142    0  0.000750 -7.123063e-06              0.0              0.0     NaN      1.0        True  wye
142    Load 8 T143    0  0.000250 -2.325789e-06              0.0              0.0     NaN      1.0        True  wye
143    Load 8 T144    0  0.000250 -2.325789e-06              0.0              0.0     NaN      1.0        True  wye
144    Load 8 T145    0  0.000250 -2.325789e-06              0.0              0.0     NaN      1.0        True  wye
145    Load 8 T146    0  0.000250 -2.325789e-06              0.0              0.0     NaN      1.0        True  wye
146    Load 8 T147    0  0.000250 -2.325789e-06              0.0              0.0     NaN      1.0        True  wye
147    Load 8 T148    0  0.000250 -2.325789e-06              0.0              0.0     NaN      1.0        True  wye
148    Load 8 T149    0  0.000250 -2.325789e-06              0.0              0.0     NaN      1.0        True  wye
149    Load 8 T150    0  0.000500 -4.748709e-06              0.0              0.0     NaN      1.0        True  wye
150    Load 8 T151    0  0.000250 -1.790590e-06              0.0              0.0     NaN      1.0        True  wye
151    Load 8 T152    0 -0.000383 -7.109149e-06              0.0              0.0     NaN      1.0        True  wye
152    Load 8 T153    0 -0.002220 -6.982241e-05              0.0              0.0     NaN      1.0        True  wye
153    Load 8 T154    0 -0.002838 -1.063968e-04              0.0              0.0     NaN      1.0        True  wye
154    Load 8 T155    0 -0.003927 -2.048319e-04              0.0              0.0     NaN      1.0        True  wye
155    Load 8 T156    0 -0.004931 -3.240591e-04              0.0              0.0     NaN      1.0        True  wye
156    Load 8 T157    0 -0.004686 -2.858263e-04              0.0              0.0     NaN      1.0        True  wye
157    Load 8 T158    0 -0.003567 -1.721861e-04              0.0              0.0     NaN      1.0        True  wye
158    Load 8 T159    0 -0.001168 -2.329504e-05              0.0              0.0     NaN      1.0        True  wye
159    Load 8 T160    0 -0.000600 -7.493020e-06              0.0              0.0     NaN      1.0        True  wye
160    Load 8 T161    0  0.000250 -2.325789e-06              0.0              0.0     NaN      1.0        True  wye
161    Load 8 T162    0  0.000250 -2.325789e-06              0.0              0.0     NaN      1.0        True  wye
162    Load 8 T163    0  0.000500 -4.748709e-06              0.0              0.0     NaN      1.0        True  wye
163    Load 8 T164    0  0.000500 -4.748709e-06              0.0              0.0     NaN      1.0        True  wye
164    Load 8 T165    0  0.001000 -1.175151e-05              0.0              0.0     NaN      1.0        True  wye
165    Load 8 T166    0  0.000500 -4.748709e-06              0.0              0.0     NaN      1.0        True  wye
166    Load 8 T167    0  0.000250 -2.325789e-06              0.0              0.0     NaN      1.0        True  wye
167    Load 8 T168    0  0.000250 -2.325789e-06              0.0              0.0     NaN      1.0        True  wye
168    Load 8 T169    0  0.000250 -2.325789e-06              0.0              0.0     NaN      1.0        True  wye
169    Load 8 T170    0  0.000250 -2.325789e-06              0.0              0.0     NaN      1.0        True  wye
170    Load 8 T171    0  0.000250 -2.325789e-06              0.0              0.0     NaN      1.0        True  wye
171    Load 8 T172    0  0.000250 -2.325789e-06              0.0              0.0     NaN      1.0        True  wye
172    Load 8 T173    0  0.000250 -2.325789e-06              0.0              0.0     NaN      1.0        True  wye
173    Load 8 T174    0  0.000250 -3.287487e-06              0.0              0.0     NaN      1.0        True  wye
174    Load 8 T175    0  0.000250 -3.288829e-06              0.0              0.0     NaN      1.0        True  wye
175    Load 8 T176    0  0.000079 -2.660549e-06              0.0              0.0     NaN      1.0        True  wye
176    Load 8 T177    0 -0.002877 -1.318578e-04              0.0              0.0     NaN      1.0        True  wye
177    Load 8 T178    0 -0.005715 -4.309490e-04              0.0              0.0     NaN      1.0        True  wye
178    Load 8 T179    0 -0.007671 -7.726358e-04              0.0              0.0     NaN      1.0        True  wye
179    Load 8 T180    0 -0.007038 -6.747184e-04              0.0              0.0     NaN      1.0        True  wye
180    Load 8 T181    0 -0.007018 -6.273705e-04              0.0              0.0     NaN      1.0        True  wye
181    Load 8 T182    0 -0.005596 -3.874055e-04              0.0              0.0     NaN      1.0        True  wye
182    Load 8 T183    0 -0.002305 -8.531235e-05              0.0              0.0     NaN      1.0        True  wye
183    Load 8 T184    0  0.000005 -4.466180e-07              0.0              0.0     NaN      1.0        True  wye
184    Load 8 T185    0  0.000500 -4.641927e-06              0.0              0.0     NaN      1.0        True  wye
185    Load 8 T186    0  0.000750 -5.292156e-06              0.0              0.0     NaN      1.0        True  wye
186    Load 8 T187    0  0.000750 -3.459907e-06              0.0              0.0     NaN      1.0        True  wye
187    Load 8 T188    0  0.000500 -2.916460e-06              0.0              0.0     NaN      1.0        True  wye
188    Load 8 T189    0  0.000500 -4.748709e-06              0.0              0.0     NaN      1.0        True  wye
189    Load 8 T190    0  0.000500 -4.748709e-06              0.0              0.0     NaN      1.0        True  wye
190    Load 8 T191    0  0.000250 -2.325789e-06              0.0              0.0     NaN      1.0        True  wye
191    Load 8 T192    0  0.000250 -4.038904e-06              0.0              0.0     NaN      1.0        True  wye
192      Load 9 T1    1  0.000500 -1.132840e-06              0.0              0.0     NaN      1.0        True  wye
193      Load 9 T2    1  0.000500 -1.132840e-06              0.0              0.0     NaN      1.0        True  wye
194      Load 9 T3    1  0.000500 -1.132840e-06              0.0              0.0     NaN      1.0        True  wye
195      Load 9 T4    1  0.000500 -1.132840e-06              0.0              0.0     NaN      1.0        True  wye
196      Load 9 T5    1  0.000500 -1.132840e-06              0.0              0.0     NaN      1.0        True  wye
197      Load 9 T6    1  0.001000 -1.699259e-06              0.0              0.0     NaN      1.0        True  wye
198      Load 9 T7    1  0.001000 -1.699259e-06              0.0              0.0     NaN      1.0        True  wye
199      Load 9 T8    1 -0.000817 -1.570565e-06              0.0              0.0     NaN      1.0        True  wye
...

EXT_GRID:
        name  bus  vm_pu  va_degree  slack_weight  in_service
0  ExtGrid 0    9    1.0        0.0           1.0        True
--------------------------------------------------

LINE:
      name std_type  from_bus  to_bus  length_km  r_ohm_per_km  x_ohm_per_km  c_nf_per_km  g_us_per_km  max_i_ka   df  parallel  type  in_service   geo
0   Line 0     None        10       7   0.100000        0.5502         0.429          0.0          0.0      0.23  1.0         1  None        True  None
1   Line 2     None         7       4   0.141421        0.5502         0.429          0.0          0.0      0.23  1.0         1  None        True  None
2   Line 8     None         8       0   0.150000        0.2747         0.402          0.0          0.0      0.34  1.0         1  None        True  None
3  Line 16     None         5       4   0.141421        0.5502         0.429          0.0          0.0      0.23  1.0         1  None        True  None
4  Line 18     None         6       5   0.200000        0.5502         0.429          0.0          0.0      0.23  1.0         1  None        True  None
5  Line 19     None         1       0   0.172047        0.5502         0.429          0.0          0.0      0.23  1.0         1  None        True  None
6  Line 21     None         3       0   0.194165        0.5502         0.429          0.0          0.0      0.23  1.0         1  None        True  None
7  Line 22     None         2       1   0.263059        0.5502         0.429          0.0          0.0      0.23  1.0         1  None        True  None
--------------------------------------------------

TRAFO:
                  name std_type  hv_bus  lv_bus  sn_mva  vn_hv_kv  vn_lv_kv  vk_percent  vkr_percent  pfe_kw  i0_percent  shift_degree tap_side  tap_neutral  tap_min  tap_max  tap_step_percent  tap_step_degree  tap_pos tap_changer_type  id_characteristic_table  tap_dependency_table  parallel   df  in_service
0  MV/LV Transformer 2     None       7       8    10.0      15.0       0.4        0.01         0.01    0.01        0.01           0.0     None          NaN      NaN      NaN               NaN              NaN      NaN              NaN                     <NA>                 False         1  1.0        True
1  Slack Transformer 0     None       9      10    40.0      70.0      15.0        0.01         0.01    0.01        0.01           0.0     None          NaN      NaN      NaN               NaN              NaN      NaN              NaN                     <NA>                 False         1  1.0        True
--------------------------------------------------

RES_BUS:
       vm_pu     va_degree      p_mw        q_mvar
0   0.999721 -2.264903e-02  0.000250 -4.038904e-06
1   0.999425 -3.589265e-02  0.000250 -5.030442e-07
2   0.999199 -4.600962e-02  0.000250  0.000000e+00
3   0.999554 -3.011155e-02  0.000250  0.000000e+00
4   0.999946 -2.370567e-03  0.020000 -3.694657e-06
5   0.999922 -3.452177e-03  0.040000 -3.766881e-07
6   0.999907 -4.107752e-03  0.030000  0.000000e+00
7   0.999977 -9.799312e-04  0.000000  0.000000e+00
8   0.999977 -9.796470e-04  0.000000  0.000000e+00
9   1.000000  0.000000e+00 -0.091027 -4.997276e-03
10  1.000000  4.293292e-07  0.000000  0.000000e+00
--------------------------------------------------

RES_LINE:
   p_from_mw   q_from_mvar   p_to_mw     q_to_mvar         pl_mw       ql_mvar  i_from_ka   i_to_ka      i_ka  vm_from_pu  va_from_degree  vm_to_pu  va_to_degree  loading_percent
0   0.091017  9.972897e-04 -0.091015 -9.957100e-04  2.026002e-06  1.579707e-06   0.003503  0.003503  0.003503    1.000000    4.293292e-07  0.999977     -0.000980         1.523250
1   0.090005 -2.221567e-07 -0.090002  2.406607e-06  2.801595e-06  2.184450e-06   0.003464  0.003464  0.003464    0.999977   -9.799312e-04  0.999946     -0.002371         1.506248
2   0.001001 -3.972466e-06 -0.001000  4.349744e-06  2.578068e-07  3.772783e-07   0.001444  0.001444  0.001444    0.999977   -9.796470e-04  0.999721     -0.022649         0.424749
3  -0.070000  3.342412e-08  0.070002  1.288051e-06  1.694815e-06  1.321475e-06   0.002695  0.002695  0.002695    0.999922   -3.452177e-03  0.999946     -0.002371         1.171534
4  -0.030000  2.531973e-13  0.030000  3.432634e-07  4.402416e-07  3.432636e-07   0.001155  0.001155  0.001155    0.999907   -4.107752e-03  0.999922     -0.003452         0.502090
5  -0.000500  4.588906e-07  0.000500 -3.434068e-07  1.481100e-07  1.154838e-07   0.000722  0.000722  0.000722    0.999425   -3.589265e-02  0.999721     -0.022649         0.313993
6  -0.000250  1.254882e-14  0.000250  3.256680e-08  4.176751e-08  3.256682e-08   0.000361  0.000361  0.000361    0.999554   -3.011155e-02  0.999721     -0.022649         0.156959
7  -0.000250  5.247692e-14  0.000250  4.415357e-08  5.662779e-08  4.415362e-08   0.000361  0.000361  0.000361    0.999199   -4.600962e-02  0.999425     -0.035893         0.157014
--------------------------------------------------

RES_TRAFO:
    p_hv_mw  q_hv_mvar   p_lv_mw  q_lv_mvar    pl_mw  ql_mvar   i_hv_ka   i_lv_ka  vm_hv_pu  va_hv_degree  vm_lv_pu  va_lv_degree  loading_percent
0  0.001011   0.000996 -0.001001   0.000004  0.00001    0.001  0.000055  0.001444  0.999977      -0.00098  0.999977 -9.796470e-04         0.014188
1  0.091027   0.004997 -0.091017  -0.000997  0.00001    0.004  0.000752  0.003503  1.000000       0.00000  1.000000  4.293292e-07         0.227911
--------------------------------------------------

RES_EXT_GRID:
       p_mw    q_mvar
0  0.091027  0.004997
--------------------------------------------------

RES_LOAD:
         p_mw        q_mvar
0     0.00000 -0.000000e+00
1     0.00000 -0.000000e+00
2     0.00000 -0.000000e+00
3     0.00000 -0.000000e+00
4     0.00000 -0.000000e+00
5     0.00000 -0.000000e+00
6     0.00000 -0.000000e+00
7    -0.00000 -0.000000e+00
8    -0.00000 -0.000000e+00
9    -0.00000 -0.000000e+00
10   -0.00000 -0.000000e+00
11   -0.00000 -0.000000e+00
12   -0.00000 -0.000000e+00
13   -0.00000 -0.000000e+00
14   -0.00000 -0.000000e+00
15   -0.00000 -0.000000e+00
16    0.00000 -0.000000e+00
17    0.00000 -0.000000e+00
18    0.00000 -0.000000e+00
19    0.00000 -0.000000e+00
20    0.00000 -0.000000e+00
21    0.00000 -0.000000e+00
22    0.00000 -0.000000e+00
23    0.00000 -0.000000e+00
24    0.00000 -0.000000e+00
25    0.00000 -0.000000e+00
26    0.00000 -0.000000e+00
27    0.00000 -0.000000e+00
28    0.00000 -0.000000e+00
29    0.00000 -0.000000e+00
30    0.00000 -0.000000e+00
31   -0.00000 -0.000000e+00
32   -0.00000 -0.000000e+00
33   -0.00000 -0.000000e+00
34   -0.00000 -0.000000e+00
35   -0.00000  0.000000e+00
36   -0.00000 -0.000000e+00
37   -0.00000 -0.000000e+00
38   -0.00000 -0.000000e+00
39   -0.00000 -0.000000e+00
40   -0.00000 -0.000000e+00
41    0.00000 -0.000000e+00
42    0.00000 -0.000000e+00
43    0.00000 -0.000000e+00
44    0.00000 -0.000000e+00
45    0.00000 -0.000000e+00
46    0.00000 -0.000000e+00
47    0.00000 -0.000000e+00
48    0.00000 -0.000000e+00
49    0.00000 -0.000000e+00
50    0.00000 -0.000000e+00
51    0.00000 -0.000000e+00
52    0.00000 -0.000000e+00
53   -0.00000 -0.000000e+00
54   -0.00000 -0.000000e+00
55   -0.00000 -0.000000e+00
56   -0.00000 -0.000000e+00
57   -0.00000  0.000000e+00
58   -0.00000  0.000000e+00
59   -0.00000  0.000000e+00
60   -0.00000  0.000000e+00
61   -0.00000  0.000000e+00
62   -0.00000 -0.000000e+00
63   -0.00000 -0.000000e+00
64   -0.00000 -0.000000e+00
65   -0.00000 -0.000000e+00
66    0.00000 -0.000000e+00
67    0.00000 -0.000000e+00
68    0.00000 -0.000000e+00
69    0.00000 -0.000000e+00
70    0.00000 -0.000000e+00
71    0.00000 -0.000000e+00
72    0.00000 -0.000000e+00
73    0.00000 -0.000000e+00
74    0.00000 -0.000000e+00
75    0.00000 -0.000000e+00
76   -0.00000 -0.000000e+00
77   -0.00000 -0.000000e+00
78   -0.00000 -0.000000e+00
79   -0.00000 -0.000000e+00
80   -0.00000 -0.000000e+00
81   -0.00000 -0.000000e+00
82   -0.00000 -0.000000e+00
83   -0.00000 -0.000000e+00
84   -0.00000 -0.000000e+00
85   -0.00000 -0.000000e+00
86   -0.00000 -0.000000e+00
87   -0.00000 -0.000000e+00
88   -0.00000 -0.000000e+00
89   -0.00000 -0.000000e+00
90   -0.00000 -0.000000e+00
91    0.00000 -0.000000e+00
92    0.00000 -0.000000e+00
93    0.00000 -0.000000e+00
94    0.00000 -0.000000e+00
95    0.00000 -0.000000e+00
96    0.00000 -0.000000e+00
97    0.00000 -0.000000e+00
98    0.00000 -0.000000e+00
99    0.00000 -0.000000e+00
100   0.00000 -0.000000e+00
101  -0.00000 -0.000000e+00
102  -0.00000 -0.000000e+00
103  -0.00000 -0.000000e+00
104  -0.00000 -0.000000e+00
105  -0.00000 -0.000000e+00
106  -0.00000 -0.000000e+00
107  -0.00000 -0.000000e+00
108  -0.00000 -0.000000e+00
109  -0.00000 -0.000000e+00
110  -0.00000 -0.000000e+00
111  -0.00000 -0.000000e+00
112  -0.00000 -0.000000e+00
113  -0.00000 -0.000000e+00
114   0.00000 -0.000000e+00
115   0.00000 -0.000000e+00
116   0.00000 -0.000000e+00
117   0.00000 -0.000000e+00
118   0.00000 -0.000000e+00
119   0.00000 -0.000000e+00
120   0.00000 -0.000000e+00
121   0.00000 -0.000000e+00
122   0.00000 -0.000000e+00
123   0.00000 -0.000000e+00
124   0.00000 -0.000000e+00
125   0.00000 -0.000000e+00
126  -0.00000 -0.000000e+00
127  -0.00000 -0.000000e+00
128  -0.00000 -0.000000e+00
129  -0.00000 -0.000000e+00
130  -0.00000 -0.000000e+00
131  -0.00000 -0.000000e+00
132  -0.00000 -0.000000e+00
133  -0.00000 -0.000000e+00
134  -0.00000 -0.000000e+00
135  -0.00000 -0.000000e+00
136  -0.00000 -0.000000e+00
137   0.00000 -0.000000e+00
138   0.00000 -0.000000e+00
139   0.00000 -0.000000e+00
140   0.00000 -0.000000e+00
141   0.00000 -0.000000e+00
142   0.00000 -0.000000e+00
143   0.00000 -0.000000e+00
144   0.00000 -0.000000e+00
145   0.00000 -0.000000e+00
146   0.00000 -0.000000e+00
147   0.00000 -0.000000e+00
148   0.00000 -0.000000e+00
149   0.00000 -0.000000e+00
150   0.00000 -0.000000e+00
151  -0.00000 -0.000000e+00
152  -0.00000 -0.000000e+00
153  -0.00000 -0.000000e+00
154  -0.00000 -0.000000e+00
155  -0.00000 -0.000000e+00
156  -0.00000 -0.000000e+00
157  -0.00000 -0.000000e+00
158  -0.00000 -0.000000e+00
159  -0.00000 -0.000000e+00
160   0.00000 -0.000000e+00
161   0.00000 -0.000000e+00
162   0.00000 -0.000000e+00
163   0.00000 -0.000000e+00
164   0.00000 -0.000000e+00
165   0.00000 -0.000000e+00
166   0.00000 -0.000000e+00
167   0.00000 -0.000000e+00
168   0.00000 -0.000000e+00
169   0.00000 -0.000000e+00
170   0.00000 -0.000000e+00
171   0.00000 -0.000000e+00
172   0.00000 -0.000000e+00
173   0.00000 -0.000000e+00
174   0.00000 -0.000000e+00
175   0.00000 -0.000000e+00
176  -0.00000 -0.000000e+00
177  -0.00000 -0.000000e+00
178  -0.00000 -0.000000e+00
179  -0.00000 -0.000000e+00
180  -0.00000 -0.000000e+00
181  -0.00000 -0.000000e+00
182  -0.00000 -0.000000e+00
183   0.00000 -0.000000e+00
184   0.00000 -0.000000e+00
185   0.00000 -0.000000e+00
186   0.00000 -0.000000e+00
187   0.00000 -0.000000e+00
188   0.00000 -0.000000e+00
189   0.00000 -0.000000e+00
190   0.00000 -0.000000e+00
191   0.00025 -4.038904e-06
192   0.00000 -0.000000e+00
193   0.00000 -0.000000e+00
194   0.00000 -0.000000e+00
195   0.00000 -0.000000e+00
196   0.00000 -0.000000e+00
197   0.00000 -0.000000e+00
198   0.00000 -0.000000e+00
199  -0.00000 -0.000000e+00
...

BUS_GEODATA:
       x     y
0   11.0  48.0
1   25.0  38.0
2   51.0  42.0
3    0.0  64.0
4   10.0  70.0
5   20.0  80.0
6   40.0  80.0
7   20.0  60.0
8   20.5  59.5
9   30.0  60.0
10  30.5  59.5
--------------------------------------------------
